Circuit: * C:\Users\VRcade\Documents\GitHub\csci\ECEN-2270\Final Project\Draft1.asc

Direct Newton iteration for .op point succeeded.

Date: Mon Apr 20 12:11:37 2020
Total elapsed time: 0.151 seconds.

tnom = 27
temp = 27
method = modified trap
totiter = 2132
traniter = 2082
tranpoints = 1042
accept = 1042
rejected = 0
matrix size = 9
fillins = 4
solver = Normal
Matrix Compiler1: 750 bytes object code size  0.2/0.1/[0.1]
Matrix Compiler2: 783 bytes object code size  0.1/0.2/[0.1]

