Circuit: * C:\Users\VRcade\Documents\GitHub\csci\ECEN-2270\Final Project\Draft2.asc

Starting Gmin stepping
Gmin = 10
Gmin = 1.07374
Gmin = 0.115292
Gmin = 0.0123794
Gmin = 0.00132923
vernier = 0.5
Gmin = 0.000247786
vernier = 0.25
vernier = 0.333333
Gmin = 0.000143928
vernier = 0.444444
vernier = 0.592592
Gmin = 5.23983e-005
vernier = 0.790123
Gmin = 1.06634e-005
vernier = 1
Gmin = 1.19514e-006
Gmin = 1.28327e-007
Gmin = 1.3779e-008
Gmin = 1.47951e-009
Gmin = 1.58861e-010
Gmin = 1.70576e-011
Gmin = 1.83154e-012
Gmin = 1.9666e-013
Gmin = 0
Gmin stepping succeeded in finding the operating point.


Date: Thu Apr 23 10:51:44 2020
Total elapsed time: 0.075 seconds.

tnom = 27
temp = 27
method = trap
totiter = 775
traniter = 0
tranpoints = 0
accept = 0
rejected = 0
matrix size = 25
fillins = 10
solver = Normal
Matrix Compiler1:      97 opcodes
Matrix Compiler2: off  [0.2]/0.4/0.2

