Circuit: * C:\Users\VRcade\Documents\GitHub\csci\ECEN-2270\Final Project\WhiteNoiseGenerator.asc

WARNING: Node OUT is floating.

WARNING: Less than two connections to node NC_01.  This node is used by Q2.
WARNING: Less than two connections to node OUT.  This node is used by C7.
Direct Newton iteration for .op point succeeded.

Date: Sat Apr 18 12:25:00 2020
Total elapsed time: 0.121 seconds.

tnom = 27
temp = 27
method = modified trap
totiter = 6212
traniter = 6196
tranpoints = 3099
accept = 2458
rejected = 641
matrix size = 15
fillins = 0
solver = Normal
Matrix Compiler1: 810 bytes object code size  0.2/0.2/[0.1]
Matrix Compiler2: off  [0.1]/0.2/0.2

