Circuit: * C:\Users\E\Documents\GitHub\ECEN-2270\Final Project\WhiteNoiseGenerator.asc

WARNING: Node OUT is floating.

WARNING: Less than two connections to node NC_01.  This node is used by Q2.
WARNING: Less than two connections to node OUT.  This node is used by C7.
Direct Newton iteration for .op point succeeded.

Date: Sun Apr 19 20:48:07 2020
Total elapsed time: 0.368 seconds.

tnom = 27
temp = 27
method = modified trap
totiter = 6204
traniter = 6188
tranpoints = 3095
accept = 2453
rejected = 642
matrix size = 15
fillins = 0
solver = Normal
Matrix Compiler1: 810 bytes object code size  0.7/0.4/[0.3]
Matrix Compiler2: off  [0.4]/0.6/0.5

