Circuit: * C:\Users\E\Documents\LTspiceXVII\ECEN 2270\Lab4\CurrentSource - Copy.asc

Per .tran options, skipping operating point for transient analysis.

Date: Tue Apr  7 11:16:41 2020
Total elapsed time: 0.139 seconds.

tnom = 27
temp = 27
method = modified trap
totiter = 2192
traniter = 2192
tranpoints = 1090
accept = 1075
rejected = 15
matrix size = 9
fillins = 0
solver = Normal
Matrix Compiler1: 456 bytes object code size  0.5/0.2/[0.1]
Matrix Compiler2: 667 bytes object code size  0.2/0.3/[0.2]

