Circuit: * C:\Users\E\Documents\LTspiceXVII\ECEN 2270\Lab4\Draft1.asc

Per .tran options, skipping operating point for transient analysis.

Date: Thu Apr  2 11:54:48 2020
Total elapsed time: 0.071 seconds.

tnom = 27
temp = 27
method = modified trap
totiter = 2192
traniter = 2192
tranpoints = 1089
accept = 1072
rejected = 17
matrix size = 9
fillins = 0
solver = Normal
Matrix Compiler1:      26 opcodes  0.1/[0.1]/0.1
Matrix Compiler2: 667 bytes object code size  0.1/0.1/[0.1]

