Circuit: * C:\Users\E\Documents\LTspiceXVII\ECEN 2270\Lab4\Wave_tri.asc

Per .tran options, skipping operating point for transient analysis.

Date: Wed Apr  8 17:02:05 2020
Total elapsed time: 0.318 seconds.

tnom = 27
temp = 27
method = modified trap
totiter = 42782
traniter = 42782
tranpoints = 10356
accept = 7894
rejected = 2462
matrix size = 15
fillins = 0
solver = Normal
Matrix Compiler1: 416 bytes object code size  0.1/0.1/[0.1]
Matrix Compiler2: 815 bytes object code size  0.1/0.2/[0.1]

