Circuit: * C:\Users\E\Documents\LTspiceXVII\ECEN 2270\Lab4\Wave_rect.asc

Per .tran options, skipping operating point for transient analysis.

Date: Mon Apr  6 16:15:14 2020
Total elapsed time: 0.562 seconds.

tnom = 27
temp = 27
method = modified trap
totiter = 67387
traniter = 67387
tranpoints = 16467
accept = 12498
rejected = 3969
matrix size = 27
fillins = 1
solver = Normal
Matrix Compiler1: 1014 bytes object code size  0.3/0.2/[0.1]
Matrix Compiler2: 1.79 KB object code size  0.2/0.3/[0.1]

