Circuit: * C:\Users\VRcade\Documents\GitHub\csci\ECEN-2270\Lab5\Lab5B4.asc

WARNING: Less than two connections to node NC_01.  This node is used by V2.
WARNING: Less than two connections to node NC_08.  This node is used by E:X1:1.
WARNING: Less than two connections to node NC_04.  This node is used by E:X1:3.
WARNING: Less than two connections to node NC_07.  This node is used by E:X1:4.
Per .tran options, skipping operating point for transient analysis.

Date: Thu Apr 30 15:07:12 2020
Total elapsed time: 0.870 seconds.

tnom = 27
temp = 27
method = modified trap
totiter = 58236
traniter = 58236
tranpoints = 28936
accept = 28711
rejected = 225
matrix size = 43
fillins = 0
solver = Normal
Matrix Compiler1: 1.57 KB object code size  0.5/0.3/[0.2]
Matrix Compiler2: 3.00 KB object code size  0.3/0.5/[0.3]

