Circuit: * C:\Users\VRcade\Documents\GitHub\csci\ECEN-2270\Lab5\Lab5B3.asc

WARNING: Less than two connections to node VXMTR.  This node is used by E1.
WARNING: Less than two connections to node VIN.  This node is used by E2.
WARNING: Less than two connections to node V1B.  This node is used by E3.
WARNING: Less than two connections to node VECHO.  This node is used by E4.
Per .tran options, skipping operating point for transient analysis.

Date: Thu Apr 23 11:26:23 2020
Total elapsed time: 0.235 seconds.

tnom = 27
temp = 27
method = modified trap
totiter = 57174
traniter = 57174
tranpoints = 28588
accept = 28588
rejected = 0
matrix size = 16
fillins = 0
solver = Normal
Matrix Compiler1:      19 opcodes  0.1/[0.0]/0.0
Matrix Compiler2: 684 bytes object code size  0.1/0.1/[0.1]

